 风洞 层流风场 WDPSS 机器人末端 偏移 补偿 ANSYS CFX软件 WDPSS 几组风速 层流风场 表现耦合 耦合效应 效应动静 动静特性 飞行器 偏移 迭代法 飞行器 模型 补偿 较高 风速 模型发生 偏移 超出 定位精度 补偿 迭代法 调整拉力